Version 4
SHEET 1 880 680
WIRE -64 -208 -64 -240
WIRE 48 -208 48 -240
WIRE 160 -208 160 -240
WIRE 272 -208 272 -240
WIRE 448 -208 448 -288
WIRE 560 -208 560 -256
WIRE 672 -208 672 -240
WIRE 448 -96 448 -112
WIRE 160 -80 160 -128
WIRE 272 -80 272 -128
WIRE -64 -64 -64 -128
WIRE 48 -64 48 -128
WIRE 672 -64 672 -128
WIRE 560 -16 560 -128
WIRE 560 -16 496 -16
WIRE -64 48 -64 0
WIRE 48 48 48 0
WIRE 48 48 -64 48
WIRE 160 48 160 -16
WIRE 160 48 48 48
WIRE 272 48 272 -16
WIRE 272 48 160 48
WIRE 448 48 448 0
WIRE 448 48 272 48
WIRE 672 48 672 0
WIRE 672 48 448 48
FLAG 160 -240 GPIO17
IOPIN 160 -240 In
FLAG 272 -240 GPIO27
IOPIN 272 -240 In
FLAG 48 -240 GPIO23
IOPIN 48 -240 Out
FLAG -64 -240 GPIO24
IOPIN -64 -240 Out
FLAG 448 -288 5V
IOPIN 448 -288 In
FLAG 560 -256 GPIO4
IOPIN 560 -256 In
FLAG 672 -240 GPIO19
IOPIN 672 -240 In
SYMBOL LED 144 -80 R0
SYMATTR InstName D1
SYMATTR Value Red
SYMBOL LED 256 -80 R0
SYMATTR InstName D2
SYMATTR Value Green
SYMBOL res 144 -224 R0
SYMATTR InstName R3
SYMATTR Value 3k3
SYMBOL res 256 -224 R0
SYMATTR InstName R4
SYMATTR Value 620
SYMBOL res 32 -224 R0
SYMATTR InstName R2
SYMATTR Value 3k3
SYMBOL res -80 -224 R0
SYMATTR InstName R1
SYMATTR Value 3k3
SYMBOL nmos 496 -96 M0
SYMATTR InstName M1
SYMBOL res 544 -224 R0
SYMATTR InstName R5
SYMATTR Value 3k3
SYMBOL Misc\\xtal 656 -64 R0
SYMATTR InstName X1
SYMATTR Value Piezo
SYMBOL res 656 -224 R0
SYMATTR InstName R6
SYMATTR Value 270
TEXT 432 -128 Left 2 ;Fan
TEXT -16 -80 Left 2 ;SW2
TEXT -136 -80 Left 2 ;SW1
LINE Normal 484 -128 468 -144 2
LINE Normal 480 -192 464 -176 2
LINE Normal 436 -176 420 -192 2
LINE Normal 432 -144 416 -128 2
RECTANGLE Normal 80 0 16 -64
RECTANGLE Normal -32 0 -96 -64
RECTANGLE Normal 496 -112 400 -208
CIRCLE Normal 64 -16 32 -48 2
CIRCLE Normal -48 -16 -80 -48 2
CIRCLE Normal 464 -144 432 -176 2
